* PHILIPS SEMICONDUCTORS                                       Version:    2.0
* Filename:    BFT92.PRM                                       Date: July 1992
*
.MODEL  BFT92   PNP
+              IS = 4.37563E-016
+              BF = 3.35815E+001
+              NF = 1.00972E+000
+             VAF = 2.33946E+001
+             IKF = 9.95381E-002
+             ISE = 8.70539E-014
+              NE = 1.94395E+000
+              BR = 4.94721E+000
+              NR = 1.00254E+000
+             VAR = 3.90385E+000
+             IKR = 5.28157E-003
+             ISC = 3.58864E-014
+              NC = 1.39333E+000
+              RB = 5.00000E+000
+             IRB = 1.00000E-006
+             RBM = 5.00000E+000
+              RE = 1.00000E+000
+              RC = 1.00000E+001
+              EG = 1.11000E+000
+             XTI = 3.00000E+000
+             CJE = 7.46659E-013
+             VJE = 6.00000E-001
+             MJE = 3.56829E-001
+              TF = 1.74921E-011
+             XTF = 1.35455E+000
+             VTF = 1.55654E-001
+             ITF = 1.00000E-003
+             PTF = 4.50000E+001
+             CJC = 9.37103E-013
+             VJC = 3.96455E-001
+             MJC = 1.99949E-001
+            XCJC = 1.06000E-001
+              TR = 8.42200E-009
+             VJS = 7.50000E-001
+              FC = 7.67856E-001
* Parameters with default value:
* XTB, EG, XTI, CJS, VJS and MJS.
*
